Info: SIMULATION PARAMETERS:
Info: TIMESTEP               2
Info: NUMBER OF STEPS        0
Info: STEPS PER CYCLE        10
Info: PERIODIC CELL BASIS 1  34.4 0 0
Info: PERIODIC CELL BASIS 2  0 17.018 0
Info: PERIODIC CELL BASIS 3  0 0 71.2593
Info: PERIODIC CELL CENTER   0 0 0
Info: WRAPPING WATERS AROUND PERIODIC BOUNDARIES ON OUTPUT.
Info: WRAPPING ALL CLUSTERS AROUND PERIODIC BOUNDARIES ON OUTPUT.
Info: FIRST LDB TIMESTEP     50
Info: LAST LDB TIMESTEP     -1
Info: HOM BACKGROUND SCALING 1
Info: PME BACKGROUND SCALING 1
Info: MIN ATOMS PER PATCH    40
Info: VELOCITY FILE          ../equilibration/MD.restart.vel
Info: CENTER OF MASS MOVING INITIALLY? NO
Info: DIELECTRIC             1
Info: EXCLUDE                SCALED ONE-FOUR
Info: 1-4 ELECTROSTATICS SCALED BY 1
Info: MODIFIED 1-4 VDW PARAMETERS WILL BE USED
Info: DCD FILENAME           MD.dcd
Info: DCD FREQUENCY          500
Info: DCD FIRST STEP         500
Info: DCD FILE WILL CONTAIN UNIT CELL DATA
Info: XST FILENAME           MD.xst
Info: XST FREQUENCY          500
Info: NO VELOCITY DCD OUTPUT
Info: NO FORCE DCD OUTPUT
Info: OUTPUT FILENAME        MD
Info: BINARY OUTPUT FILES WILL BE USED
Info: RESTART FILENAME       MD.restart
Info: RESTART FREQUENCY      5000
Info: BINARY RESTART FILES WILL BE USED
Info: SWITCHING ACTIVE
Info: SWITCHING ON           10
Info: SWITCHING OFF          12
Info: PAIRLIST DISTANCE      14
Info: PAIRLIST SHRINK RATE   0.01
Info: PAIRLIST GROW RATE     0.01
Info: PAIRLIST TRIGGER       0.3
Info: PAIRLISTS PER CYCLE    2
Info: PAIRLISTS ENABLED
Info: MARGIN                 0
Info: HYDROGEN GROUP CUTOFF  2.5
Info: PATCH DIMENSION        16.5
Info: ENERGY OUTPUT STEPS    500
Info: CROSSTERM ENERGY INCLUDED IN DIHEDRAL
Info: TIMING OUTPUT STEPS    5000
Info: PRESSURE OUTPUT STEPS  500
Info: FIXED ATOMS ACTIVE
Info: TCL GLOBAL FORCES ACTIVE
Info: TCL GLOBAL FORCES SCRIPT INLINED IN CONFIG FILE
Info: LANGEVIN DYNAMICS ACTIVE
Info: LANGEVIN TEMPERATURE   300
Info: LANGEVIN USING BBK INTEGRATOR
Info: LANGEVIN DAMPING COEFFICIENT IS 1 INVERSE PS
Info: LANGEVIN DYNAMICS NOT APPLIED TO HYDROGENS
Info: PARTICLE MESH EWALD (PME) ACTIVE
Info: PME TOLERANCE               1e-06
Info: PME EWALD COEFFICIENT       0.257952
Info: PME INTERPOLATION ORDER     4
Info: PME GRID DIMENSIONS         36 18 72
Info: PME MAXIMUM GRID SPACING    1
Info: FULL ELECTROSTATIC EVALUATION FREQUENCY      2
Info: USING VERLET I (r-RESPA) MTS SCHEME.
Info: C1 SPLITTING OF LONG RANGE ELECTROSTATICS
Info: PLACING ATOMS IN PATCHES BY HYDROGEN GROUPS
Info: RIGID BONDS TO HYDROGEN : ALL
Info:         ERROR TOLERANCE : 1e-08
Info:          MAX ITERATIONS : 100
Info: RIGID WATER USING SETTLE ALGORITHM
Info: RANDOM NUMBER SEED     1687029654
Info: USE HYDROGEN BONDS?    NO
Info: COORDINATE PDB         ../input/system.pdb
Info: STRUCTURE FILE         ../input/system.psf
Info: PARAMETER file: CHARMM format!
Info: PARAMETERS             ../input/par_water.inp
Info: PARAMETERS             ../input/par_nanotubes.inp
Info: USING ARITHMETIC MEAN TO COMBINE L-J SIGMA PARAMETERS
Info: BINARY COORDINATES     ../equilibration/MD.restart.coor
Info: SUMMARY OF PARAMETERS:
Info: 3 BONDS
Info: 2 ANGLES
Info: 1 DIHEDRAL
Info: 0 IMPROPER
Info: 0 CROSSTERM
Info: 3 VDW
Info: 0 VDW_PAIRS
Info: 0 NBTHOLE_PAIRS
Info: STRUCTURE SUMMARY:
Info: 3732 ATOMS
Info: 2824 BONDS
Info: 2236 ANGLES
Info: 2008 DIHEDRALS
Info: 0 IMPROPERS
Info: 0 CROSSTERMS
Info: 0 EXCLUSIONS
Info: 552 FIXED ATOMS
Info: 3180 RIGID BONDS
Info: 0 RIGID BONDS BETWEEN FIXED ATOMS
Info: 6360 DEGREES OF FREEDOM
Info: 1612 HYDROGEN GROUPS
Info: 3 ATOMS IN LARGEST HYDROGEN GROUP
Info: 1612 MIGRATION GROUPS
Info: 3 ATOMS IN LARGEST MIGRATION GROUP
Info: 552 HYDROGEN GROUPS WITH ALL ATOMS FIXED
Info: TOTAL MASS = 25726 amu
Info: TOTAL CHARGE = 0 e
Info: MASS DENSITY = 1.02405 g/cm^3
Info: ATOM DENSITY = 0.0894608 atoms/A^3
Info: ADDED 6612 IMPLICIT EXCLUSIONS
Info: NONBONDED TABLE R-SQUARED SPACING: 0.0625
Info: NONBONDED TABLE SIZE: 769 POINTS
Info: REMOVING COM VELOCITY 0.0262984 0.156468 -0.103273
TCL: Running for 500000 steps
ETITLE: TS BOND ANGLE DIHED IMPRP ELECT VDW BOUNDARY MISC KINETIC TOTAL TEMP POTENTIAL TOTAL3 TEMPAVG PRESSURE GPRESSURE VOLUME PRESSAVG GPRESSAVG
ENERGY: 0 0.0000 0.0000 0.0000 0.0000 -12254.3644 1190.8941 0.0000 0.0000 1547.2799 -9516.1904 244.8512 -11063.4703 -9513.0666 244.8512 -446.3159 -420.8732 41716.5840 -446.3159 -420.8732
ENERGY: 100000 0.0000 0.0000 0.0000 0.0000 -11345.6245 963.2052 0.0000 0.0000 1893.9976 -8488.4216 299.7179 -10382.4192 -8485.0470 299.0552 68.6931 85.8766 41716.5840 40.8097 40.6432
ENERGY: 200000 0.0000 0.0000 0.0000 0.0000 -11394.3705 922.6978 0.0000 0.0000 1865.3572 -8606.3155 295.1857 -10471.6727 -8603.3218 295.0525 -204.2300 -172.3786 41716.5840 81.7416 82.0422
ENERGY: 300000 0.0000 0.0000 0.0000 0.0000 -11400.9484 923.1905 0.0000 0.0000 1947.6303 -8530.1276 308.2051 -10477.7579 -8525.2668 299.9597 -328.8785 -300.2901 41716.5840 122.3869 122.5679
ENERGY: 400000 0.0000 0.0000 0.0000 0.0000 -11385.8270 944.9720 0.0000 0.0000 1913.6803 -8527.1747 302.8326 -10440.8550 -8522.9512 298.3395 -231.9397 -216.9574 41716.5840 -52.9591 -52.7622
ENERGY: 500000 0.0000 0.0000 0.0000 0.0000 -11392.7828 961.4116 0.0000 0.0000 1947.7297 -8483.6415 308.2208 -10431.3712 -8479.6677 297.2326 174.5012 202.5553 41716.5840 -53.0956 -53.0396
