Info: SIMULATION PARAMETERS:
Info: TIMESTEP               2
Info: NUMBER OF STEPS        0
Info: STEPS PER CYCLE        10
Info: PERIODIC CELL BASIS 1  34.4 0 0
Info: PERIODIC CELL BASIS 2  0 17.018 0
Info: PERIODIC CELL BASIS 3  0 0 80
Info: PERIODIC CELL CENTER   0 0 0
Info: WRAPPING WATERS AROUND PERIODIC BOUNDARIES ON OUTPUT.
Info: WRAPPING ALL CLUSTERS AROUND PERIODIC BOUNDARIES ON OUTPUT.
Info: FIRST LDB TIMESTEP     50
Info: LAST LDB TIMESTEP     -1
Info: HOM BACKGROUND SCALING 1
Info: PME BACKGROUND SCALING 1
Info: MIN ATOMS PER PATCH    40
Info: INITIAL TEMPERATURE    300
Info: CENTER OF MASS MOVING INITIALLY? NO
Info: DIELECTRIC             1
Info: EXCLUDE                SCALED ONE-FOUR
Info: 1-4 ELECTROSTATICS SCALED BY 1
Info: MODIFIED 1-4 VDW PARAMETERS WILL BE USED
Info: DCD FILENAME           MD.dcd
Info: DCD FREQUENCY          50
Info: DCD FIRST STEP         50
Info: DCD FILE WILL CONTAIN UNIT CELL DATA
Info: XST FILENAME           MD.xst
Info: XST FREQUENCY          50
Info: NO VELOCITY DCD OUTPUT
Info: NO FORCE DCD OUTPUT
Info: OUTPUT FILENAME        MD
Info: BINARY OUTPUT FILES WILL BE USED
Info: RESTART FILENAME       MD.restart
Info: RESTART FREQUENCY      500
Info: BINARY RESTART FILES WILL BE USED
Info: SWITCHING ACTIVE
Info: SWITCHING ON           10
Info: SWITCHING OFF          12
Info: PAIRLIST DISTANCE      14
Info: PAIRLIST SHRINK RATE   0.01
Info: PAIRLIST GROW RATE     0.01
Info: PAIRLIST TRIGGER       0.3
Info: PAIRLISTS PER CYCLE    2
Info: PAIRLISTS ENABLED
Info: MARGIN                 0.99
Info: HYDROGEN GROUP CUTOFF  2.5
Info: PATCH DIMENSION        17.49
Info: ENERGY OUTPUT STEPS    50
Info: CROSSTERM ENERGY INCLUDED IN DIHEDRAL
Info: TIMING OUTPUT STEPS    500
Info: PRESSURE OUTPUT STEPS  50
Info: FIXED ATOMS ACTIVE
Info: LANGEVIN DYNAMICS ACTIVE
Info: LANGEVIN TEMPERATURE   300
Info: LANGEVIN USING BBK INTEGRATOR
Info: LANGEVIN DAMPING COEFFICIENT IS 1 INVERSE PS
Info: LANGEVIN DYNAMICS NOT APPLIED TO HYDROGENS
Info: LANGEVIN PISTON PRESSURE CONTROL ACTIVE
Info:        TARGET PRESSURE IS 1.01325 BAR
Info:     OSCILLATION PERIOD IS 200 FS
Info:             DECAY TIME IS 100 FS
Info:     PISTON TEMPERATURE IS 300 K
Info:       PRESSURE CONTROL IS GROUP-BASED
Info:    INITIAL STRAIN RATE IS 0 0 0
Info:       CELL FLUCTUATION IS ANISOTROPIC
Info:     CONSTANT AREA PRESSURE CONTROL ACTIVE
Info: PARTICLE MESH EWALD (PME) ACTIVE
Info: PME TOLERANCE               1e-06
Info: PME EWALD COEFFICIENT       0.257952
Info: PME INTERPOLATION ORDER     4
Info: PME GRID DIMENSIONS         36 18 80
Info: PME MAXIMUM GRID SPACING    1
Info: FULL ELECTROSTATIC EVALUATION FREQUENCY      2
Info: USING VERLET I (r-RESPA) MTS SCHEME.
Info: C1 SPLITTING OF LONG RANGE ELECTROSTATICS
Info: PLACING ATOMS IN PATCHES BY HYDROGEN GROUPS
Info: RIGID BONDS TO HYDROGEN : ALL
Info:         ERROR TOLERANCE : 1e-08
Info:          MAX ITERATIONS : 100
Info: RIGID WATER USING SETTLE ALGORITHM
Info: RANDOM NUMBER SEED     1686921426
Info: USE HYDROGEN BONDS?    NO
Info: COORDINATE PDB         ../input/aaaaa.pdb
Info: STRUCTURE FILE         ../input/system.psf
Info: PARAMETER file: CHARMM format!
Info: PARAMETERS             ../input/par_water.inp
Info: PARAMETERS             ../input/par_nanotubes.inp
Info: USING ARITHMETIC MEAN TO COMBINE L-J SIGMA PARAMETERS
Info: SUMMARY OF PARAMETERS:
Info: 3 BONDS
Info: 2 ANGLES
Info: 1 DIHEDRAL
Info: 0 IMPROPER
Info: 0 CROSSTERM
Info: 3 VDW
Info: 0 VDW_PAIRS
Info: 0 NBTHOLE_PAIRS
Info: STRUCTURE SUMMARY:
Info: 3732 ATOMS
Info: 2824 BONDS
Info: 2236 ANGLES
Info: 2008 DIHEDRALS
Info: 0 IMPROPERS
Info: 0 CROSSTERMS
Info: 0 EXCLUSIONS
Info: 552 FIXED ATOMS
Info: 3180 RIGID BONDS
Info: 0 RIGID BONDS BETWEEN FIXED ATOMS
Info: 6360 DEGREES OF FREEDOM
Info: 1612 HYDROGEN GROUPS
Info: 3 ATOMS IN LARGEST HYDROGEN GROUP
Info: 1612 MIGRATION GROUPS
Info: 3 ATOMS IN LARGEST MIGRATION GROUP
Info: 552 HYDROGEN GROUPS WITH ALL ATOMS FIXED
Info: TOTAL MASS = 25726 amu
Info: TOTAL CHARGE = 0 e
Info: MASS DENSITY = 0.912168 g/cm^3
Info: ATOM DENSITY = 0.0796865 atoms/A^3
Info: ADDED 6612 IMPLICIT EXCLUSIONS
Info: NONBONDED TABLE R-SQUARED SPACING: 0.0625
Info: NONBONDED TABLE SIZE: 769 POINTS
Info: REDUCING NUMBER OF PATCHES TO IMPROVE LOAD BALANCE
Info: REMOVING COM VELOCITY -0.0560744 0.0776472 0.0324306
TCL: Minimizing for 500 steps
ETITLE: TS BOND ANGLE DIHED IMPRP ELECT VDW BOUNDARY MISC KINETIC TOTAL TEMP POTENTIAL TOTAL3 TEMPAVG PRESSURE GPRESSURE VOLUME PRESSAVG GPRESSAVG
ENERGY: 0 0.0000 0.0000 0.0000 0.0000 -8804.2088 13949.9857 0.0000 0.0000 0.0000 5145.7770 0.0000 5145.7770 5145.7770 0.0000 103354.8735 84923.5107 46833.5360 103354.8735 84923.5107
ENERGY: 100 0.0000 0.0000 0.0000 0.0000 -12346.9783 986.6939 0.0000 0.0000 0.0000 -11360.2844 0.0000 -11360.2844 -11360.2844 0.0000 11379.9677 10831.0491 46833.5360 11379.9677 10831.0491
ENERGY: 200 0.0000 0.0000 0.0000 0.0000 -13241.3903 1314.5106 0.0000 0.0000 0.0000 -11926.8797 0.0000 -11926.8797 -11926.8797 0.0000 13419.8661 12959.6250 46833.5360 13419.8661 12959.6250
ENERGY: 300 0.0000 0.0000 0.0000 0.0000 -13606.9330 1443.4366 0.0000 0.0000 0.0000 -12163.4965 0.0000 -12163.4965 -12163.4965 0.0000 14264.7808 13785.4367 46833.5360 14264.7808 13785.4367
ENERGY: 400 0.0000 0.0000 0.0000 0.0000 -13820.9719 1496.5651 0.0000 0.0000 0.0000 -12324.4068 0.0000 -12324.4068 -12324.4068 0.0000 14560.5771 14049.2459 46833.5360 14560.5771 14049.2459
ENERGY: 500 0.0000 0.0000 0.0000 0.0000 -13924.7812 1528.1560 0.0000 0.0000 0.0000 -12396.6252 0.0000 -12396.6252 -12396.6252 0.0000 14782.4737 14276.2929 46833.5360 14782.4737 14276.2929
TCL: Running for 2500 steps
ETITLE: TS BOND ANGLE DIHED IMPRP ELECT VDW BOUNDARY MISC KINETIC TOTAL TEMP POTENTIAL TOTAL3 TEMPAVG PRESSURE GPRESSURE VOLUME PRESSAVG GPRESSAVG
ENERGY: 500 0.0000 0.0000 0.0000 0.0000 -13924.7812 1528.1560 0.0000 0.0000 0.0000 -12396.6252 0.0000 -12396.6252 -12396.7794 0.0000 -3379.1928 -3365.9348 46833.5360 -3379.1928 -3365.9348
ENERGY: 1000 0.0000 0.0000 0.0000 0.0000 -13673.5278 1632.4827 0.0000 0.0000 723.6593 -11317.3858 114.5163 -12041.0451 -11316.9662 112.7455 -511.6251 -493.5993 43379.2420 -536.4378 -535.8632
ENERGY: 1500 0.0000 0.0000 0.0000 0.0000 -13221.2279 1481.9912 0.0000 0.0000 1088.8054 -10650.4313 172.2993 -11739.2366 -10648.9915 167.2547 -353.7196 -329.7792 42436.4691 -777.2946 -776.8833
ENERGY: 2000 0.0000 0.0000 0.0000 0.0000 -12821.5584 1377.3855 0.0000 0.0000 1308.9592 -10135.2137 207.1378 -11444.1729 -10132.9393 207.0899 -345.4589 -322.7450 42170.4939 -391.2657 -391.1720
ENERGY: 2500 0.0000 0.0000 0.0000 0.0000 -12446.3157 1207.9249 0.0000 0.0000 1468.5865 -9769.8043 232.3982 -11238.3908 -9766.5688 231.4215 -746.4289 -711.6310 41699.1042 -443.2787 -442.5369
ENERGY: 3000 0.0000 0.0000 0.0000 0.0000 -12254.3611 1190.8940 0.0000 0.0000 1548.7228 -9514.7443 245.0795 -11063.4671 -9510.0874 248.2285 -402.4554 -369.1855 41716.5840 -195.5794 -195.0752
