Info: SIMULATION PARAMETERS:
Info: TIMESTEP               2
Info: NUMBER OF STEPS        0
Info: STEPS PER CYCLE        10
Info: PERIODIC CELL BASIS 1  34.4 0 0
Info: PERIODIC CELL BASIS 2  0 17.018 0
Info: PERIODIC CELL BASIS 3  0 0 71.2593
Info: PERIODIC CELL CENTER   0 0 0
Info: WRAPPING WATERS AROUND PERIODIC BOUNDARIES ON OUTPUT.
Info: WRAPPING ALL CLUSTERS AROUND PERIODIC BOUNDARIES ON OUTPUT.
Info: FIRST LDB TIMESTEP     50
Info: LAST LDB TIMESTEP     -1
Info: HOM BACKGROUND SCALING 1
Info: PME BACKGROUND SCALING 1
Info: MIN ATOMS PER PATCH    40
Info: VELOCITY FILE          ../equilibration/MD.restart.vel
Info: CENTER OF MASS MOVING INITIALLY? NO
Info: DIELECTRIC             1
Info: EXCLUDE                SCALED ONE-FOUR
Info: 1-4 ELECTROSTATICS SCALED BY 1
Info: MODIFIED 1-4 VDW PARAMETERS WILL BE USED
Info: DCD FILENAME           MD.dcd
Info: DCD FREQUENCY          500
Info: DCD FIRST STEP         500
Info: DCD FILE WILL CONTAIN UNIT CELL DATA
Info: XST FILENAME           MD.xst
Info: XST FREQUENCY          500
Info: NO VELOCITY DCD OUTPUT
Info: NO FORCE DCD OUTPUT
Info: OUTPUT FILENAME        MD
Info: BINARY OUTPUT FILES WILL BE USED
Info: RESTART FILENAME       MD.restart
Info: RESTART FREQUENCY      5000
Info: BINARY RESTART FILES WILL BE USED
Info: SWITCHING ACTIVE
Info: SWITCHING ON           10
Info: SWITCHING OFF          12
Info: PAIRLIST DISTANCE      14
Info: PAIRLIST SHRINK RATE   0.01
Info: PAIRLIST GROW RATE     0.01
Info: PAIRLIST TRIGGER       0.3
Info: PAIRLISTS PER CYCLE    2
Info: PAIRLISTS ENABLED
Info: MARGIN                 0
Info: HYDROGEN GROUP CUTOFF  2.5
Info: PATCH DIMENSION        16.5
Info: ENERGY OUTPUT STEPS    500
Info: CROSSTERM ENERGY INCLUDED IN DIHEDRAL
Info: TIMING OUTPUT STEPS    5000
Info: PRESSURE OUTPUT STEPS  500
Info: FIXED ATOMS ACTIVE
Info: TCL GLOBAL FORCES ACTIVE
Info: TCL GLOBAL FORCES SCRIPT INLINED IN CONFIG FILE
Info: LANGEVIN DYNAMICS ACTIVE
Info: LANGEVIN TEMPERATURE   300
Info: LANGEVIN USING BBK INTEGRATOR
Info: LANGEVIN DAMPING COEFFICIENT IS 1 INVERSE PS
Info: LANGEVIN DYNAMICS NOT APPLIED TO HYDROGENS
Info: PARTICLE MESH EWALD (PME) ACTIVE
Info: PME TOLERANCE               1e-06
Info: PME EWALD COEFFICIENT       0.257952
Info: PME INTERPOLATION ORDER     4
Info: PME GRID DIMENSIONS         36 18 72
Info: PME MAXIMUM GRID SPACING    1
Info: FULL ELECTROSTATIC EVALUATION FREQUENCY      2
Info: USING VERLET I (r-RESPA) MTS SCHEME.
Info: C1 SPLITTING OF LONG RANGE ELECTROSTATICS
Info: PLACING ATOMS IN PATCHES BY HYDROGEN GROUPS
Info: RIGID BONDS TO HYDROGEN : ALL
Info:         ERROR TOLERANCE : 1e-08
Info:          MAX ITERATIONS : 100
Info: RIGID WATER USING SETTLE ALGORITHM
Info: RANDOM NUMBER SEED     1687081438
Info: USE HYDROGEN BONDS?    NO
Info: COORDINATE PDB         ../input/system.pdb
Info: STRUCTURE FILE         ../input/system.psf
Info: PARAMETER file: CHARMM format!
Info: PARAMETERS             ../input/par_water.inp
Info: PARAMETERS             ../input/par_nanotubes.inp
Info: USING ARITHMETIC MEAN TO COMBINE L-J SIGMA PARAMETERS
Info: BINARY COORDINATES     ../equilibration/MD.restart.coor
Info: SUMMARY OF PARAMETERS:
Info: 3 BONDS
Info: 2 ANGLES
Info: 1 DIHEDRAL
Info: 0 IMPROPER
Info: 0 CROSSTERM
Info: 3 VDW
Info: 0 VDW_PAIRS
Info: 0 NBTHOLE_PAIRS
Info: STRUCTURE SUMMARY:
Info: 3732 ATOMS
Info: 2824 BONDS
Info: 2236 ANGLES
Info: 2008 DIHEDRALS
Info: 0 IMPROPERS
Info: 0 CROSSTERMS
Info: 0 EXCLUSIONS
Info: 552 FIXED ATOMS
Info: 3180 RIGID BONDS
Info: 0 RIGID BONDS BETWEEN FIXED ATOMS
Info: 6360 DEGREES OF FREEDOM
Info: 1612 HYDROGEN GROUPS
Info: 3 ATOMS IN LARGEST HYDROGEN GROUP
Info: 1612 MIGRATION GROUPS
Info: 3 ATOMS IN LARGEST MIGRATION GROUP
Info: 552 HYDROGEN GROUPS WITH ALL ATOMS FIXED
Info: TOTAL MASS = 25726 amu
Info: TOTAL CHARGE = 0 e
Info: MASS DENSITY = 1.02405 g/cm^3
Info: ATOM DENSITY = 0.0894608 atoms/A^3
Info: ADDED 6612 IMPLICIT EXCLUSIONS
Info: NONBONDED TABLE R-SQUARED SPACING: 0.0625
Info: NONBONDED TABLE SIZE: 769 POINTS
Info: REMOVING COM VELOCITY 0.0262984 0.156468 -0.103273
TCL: Running for 500000 steps
ETITLE: TS BOND ANGLE DIHED IMPRP ELECT VDW BOUNDARY MISC KINETIC TOTAL TEMP POTENTIAL TOTAL3 TEMPAVG PRESSURE GPRESSURE VOLUME PRESSAVG GPRESSAVG
ENERGY: 0 0.0000 0.0000 0.0000 0.0000 -12254.3644 1190.8941 0.0000 0.0000 1547.2799 -9516.1904 244.8512 -11063.4703 -9513.0662 244.8512 -530.2089 -504.7662 41716.5840 -530.2089 -504.7662
ENERGY: 100000 0.0000 0.0000 0.0000 0.0000 -11301.6487 971.9508 0.0000 0.0000 1950.8403 -8378.8577 308.7130 -10329.6979 -8374.8654 308.1281 1043.8857 1062.4436 41716.5840 1059.4237 1059.4065
ENERGY: 200000 0.0000 0.0000 0.0000 0.0000 -11471.8554 1040.4348 0.0000 0.0000 1833.2368 -8598.1838 290.1027 -10431.4206 -8593.6208 292.8452 809.5100 834.5700 41716.5840 155.9824 155.9751
ENERGY: 300000 0.0000 0.0000 0.0000 0.0000 -11324.3872 905.6257 0.0000 0.0000 1866.8277 -8551.9338 295.4184 -10418.7615 -8548.2148 297.2806 59.6080 88.5206 41716.5840 240.9498 241.0016
ENERGY: 400000 0.0000 0.0000 0.0000 0.0000 -11410.1415 973.3457 0.0000 0.0000 1901.6438 -8535.1520 300.9279 -10436.7958 -8529.7615 297.3349 166.3150 174.0641 41716.5840 -59.2085 -59.3716
ENERGY: 500000 0.0000 0.0000 0.0000 0.0000 -11282.6906 913.9046 0.0000 0.0000 1906.5145 -8462.2715 301.6987 -10368.7860 -8459.9234 301.0614 -102.7044 -87.1457 41716.5840 93.8263 93.7912
